@<TRIPOS>MOLECULE
*****
 50 54 0 0 0
SMALL
GASTEIGER

@<TRIPOS>ATOM
      1 C           1.7755   -0.0094    1.5173 C.3     1  UNL1       -0.0511
      2 C           2.8596   -0.0272    0.4536 C.3     1  UNL1        0.0726
      3 C           2.7131    0.7297   -0.8860 C.3     1  UNL1        0.1170
      4 C           1.7711   -0.1750   -1.6664 C.3     1  UNL1        0.1510
      5 C           0.1797    0.0359   -1.6164 C.3     1  UNL1        0.1436
      6 C          -0.2558    1.5095   -1.4868 C.3     1  UNL1        0.0400
      7 C           0.4809    2.2828   -2.6426 C.3     1  UNL1        0.2101
      8 C           0.3780    1.6243   -4.1056 C.3     1  UNL1        0.1542
      9 C          -0.8115    0.7006   -3.9774 C.3     1  UNL1        0.2695
     10 C          -0.4751   -0.4680   -2.9944 C.3     1  UNL1        0.1610
     11 C          -1.7764   -1.2418   -3.0955 C.3     1  UNL1        0.0810
     12 C          -2.0312   -1.0955   -4.6083 C.2     1  UNL1        0.3113
     13 O          -2.7589   -1.8057   -5.2744 O.2     1  UNL1       -0.2507
     14 O          -1.2850   -0.0295   -5.1114 O.3     1  UNL1       -0.4405
     15 O           0.4765   -1.3978   -3.5876 O.3     1  UNL1       -0.3804
     16 C          -1.9964    1.7375   -3.6906 C.2     1  UNL1        0.3597
     17 O          -3.1768    1.4006   -3.7067 O.2     1  UNL1       -0.2460
     18 O          -1.6759    3.0483   -3.3857 O.3     1  UNL1       -0.4280
     19 C          -0.3637    3.5291   -2.9254 C.3     1  UNL1        0.2456
     20 O           0.2622    4.3555   -3.9079 O.3     1  UNL1       -0.3547
     21 O           1.5962    1.1125   -4.6041 O.3     1  UNL1       -0.3829
     22 O           1.8445    2.5950   -2.2313 O.3     1  UNL1       -0.4480
     23 C           2.3289    2.1983   -0.9960 C.2     1  UNL1        0.3183
     24 O           2.6613    3.0141   -0.1476 O.2     1  UNL1       -0.2500
     25 C          -0.3602    2.3416   -0.1823 C.3     1  UNL1       -0.0556
     26 O          -0.3960   -0.7063   -0.5457 O.3     1  UNL1       -0.3814
     27 O           2.0761   -1.5108   -1.2010 O.3     1  UNL1       -0.4570
     28 C           2.8629   -1.4427   -0.0776 C.2     1  UNL1        0.3115
     29 O           3.3887   -2.4087    0.4355 O.2     1  UNL1       -0.2505
     30 C           4.1574    0.7406   -1.4906 C.3     1  UNL1       -0.0451
     31 H           2.0913    0.5561    2.3978 H       1  UNL1        0.0238
     32 H           1.4975   -1.0150    1.8587 H       1  UNL1        0.0238
     33 H           0.8653    0.4326    1.1590 H       1  UNL1        0.0238
     34 H           3.8268    0.1674    0.9274 H       1  UNL1        0.0423
     35 H           2.1115   -0.1335   -2.7014 H       1  UNL1        0.0775
     36 H          -1.3329    1.4177   -1.6385 H       1  UNL1        0.0370
     37 H           0.0896    2.3458   -4.8828 H       1  UNL1        0.0683
     38 H          -1.6595   -2.3057   -2.8630 H       1  UNL1        0.0408
     39 H          -2.6049   -0.8120   -2.5307 H       1  UNL1        0.0408
     40 H           0.5885   -2.1779   -3.0071 H       1  UNL1        0.2105
     41 H          -0.5070    4.1642   -2.0495 H       1  UNL1        0.1098
     42 H           1.2197    4.1568   -3.9085 H       1  UNL1        0.2137
     43 H           1.6658    1.4259   -5.5337 H       1  UNL1        0.2102
     44 H          -0.2253    1.8060    0.7452 H       1  UNL1        0.0235
     45 H          -1.3712    2.7678   -0.1123 H       1  UNL1        0.0235
     46 H           0.2771    3.2301   -0.1746 H       1  UNL1        0.0235
     47 H           0.0056   -1.5982   -0.5266 H       1  UNL1        0.2105
     48 H           4.5860   -0.2615   -1.6173 H       1  UNL1        0.0242
     49 H           4.8410    1.2975   -0.8315 H       1  UNL1        0.0242
     50 H           4.1971    1.2372   -2.4685 H       1  UNL1        0.0242
@<TRIPOS>BOND
     1     1     2    1
     2     2     3    1
     3     3     4    1
     4     4     5    1
     5     5     6    1
     6     6     7    1
     7     7     8    1
     8     8     9    1
     9     9    10    1
    10     5    10    1
    11    10    11    1
    12    11    12    1
    13    12    13    2
    14    12    14    1
    15     9    14    1
    16    10    15    1
    17     9    16    1
    18    16    17    2
    19    16    18    1
    20    18    19    1
    21     7    19    1
    22    19    20    1
    23     8    21    1
    24     7    22    1
    25    22    23    1
    26     3    23    1
    27    23    24    2
    28     6    25    1
    29     5    26    1
    30     4    27    1
    31    27    28    1
    32     2    28    1
    33    28    29    2
    34     3    30    1
    35     1    31    1
    36     1    32    1
    37     1    33    1
    38     2    34    1
    39     4    35    1
    40     6    36    1
    41     8    37    1
    42    11    38    1
    43    11    39    1
    44    15    40    1
    45    19    41    1
    46    20    42    1
    47    21    43    1
    48    25    44    1
    49    25    45    1
    50    25    46    1
    51    26    47    1
    52    30    48    1
    53    30    49    1
    54    30    50    1
